RUNSPEC

DIMENS
 10 10 10 /

GRID

CARFIN
-- NAME I1-I2 J1-J2 K1-K2 NX NY NZ
'LGR1'  5  6  5  6  1  3  6  6  9 /
ENDFIN

CARFIN
-- NAME I1-I2 J1-J2 K1-K2 NX NY NZ
'LGR2'  7  8  7  8  1  3  8  8  9 /
ENDFIN


DX
1000*1 /
DY
1000*1 /
DZ
1000*1 /
TOPS
100*1 /

PORO
  1000*0.15 /

PERMX
  1000*1 /

COPY
  PERMX PERMZ /
  PERMX PERMY /
/

EDIT

OIL
GAS

TITLE
The title

START
16 JUN 1988 /

PROPS

REGIONS

SOLUTION

SCHEDULE
