RUNSPEC
TITLE
   SPE1 - CASE 1
DIMENS
   3 1 1 /
EQLDIMS
/
TABDIMS
/
OIL
GAS
WATER
DISGAS
FIELD
START
   1 'JAN' 2015 /
WELLDIMS
  3 2 3 3 /
UNIFOUT
GRID
CARFIN
'LGR1'  1  1  1  1  1  1  3  3  1 2/
ENDFIN
CARFIN
'LGR2'  3  3  1  1  1  1  3  3  1 2/
ENDFIN
INIT
DX 
   	3*2333 /
DY
	3*3500 /
DZ
	3*50 /
TOPS
	3*8325 /
PORO
   	3*0.3 /
PERMX
	3*500 /
PERMY
	3*250 /
PERMZ
	3*200 /
ECHO
PROPS
PVTW
    	4017.55 1.038 3.22E-6 0.318 0.0 /
ROCK
14.7 3E-6 /
SWOF
0.12	0    		 	1	0
0.18	4.64876033057851E-008	1	0
0.24	0.000000186		0.997	0
0.3	4.18388429752066E-007	0.98	0
0.36	7.43801652892562E-007	0.7	0
0.42	1.16219008264463E-006	0.35	0
0.48	1.67355371900826E-006	0.2	0
0.54	2.27789256198347E-006	0.09	0
0.6	2.97520661157025E-006	0.021	0
0.66	3.7654958677686E-006	0.01	0
0.72	4.64876033057851E-006	0.001	0
0.78	0.000005625		0.0001	0
0.84	6.69421487603306E-006	0	0
0.91	8.05914256198347E-006	0	0
1	0.00001			0	0 /
SGOF
0	0	1	0
0.001	0	1	0
0.02	0	0.997	0
0.05	0.005	0.980	0
0.12	0.025	0.700	0
0.2	0.075	0.350	0
0.25	0.125	0.200	0
0.3	0.190	0.090	0
0.4	0.410	0.021	0
0.45	0.60	0.010	0
0.5	0.72	0.001	0
0.6	0.87	0.0001	0
0.7	0.94	0.000	0
0.85	0.98	0.000	0 
0.88	0.984	0.000	0 /
DENSITY
      	53.66 64.49 0.0533 /
PVDG
14.700	166.666	0.008000
264.70	12.0930	0.009600
514.70	6.27400	0.011200
1014.7	3.19700	0.014000
2014.7	1.61400	0.018900
2514.7	1.29400	0.020800
3014.7	1.08000	0.022800
4014.7	0.81100	0.026800
5014.7	0.64900	0.030900
6014.7	0.58700	0.035900
7014.7	0.45500	0.039900
8014.7	0.41200	0.044900
9014.7	0.38600	0.047000 /
PVTO
0.0010	14.7	1.0620	1.0400 /
0.0905	264.7	1.1500	0.9750 /
0.1800	514.7	1.2070	0.9100 /
0.3710	1014.7	1.2950	0.8300 /
0.6360	2014.7	1.4350	0.6950 /
0.7750	2514.7	1.5000	0.6410 /
0.9300	3014.7	1.5650	0.5940 /
1.2700	4014.7	1.6950	0.5100 
         5014.7	1.6650	0.5500 
		 6014.7	1.6250	0.6100 
		 7014.7	1.6050	0.6500 
		 8014.7	1.5850	0.6900 
	    9014.7	1.5790	0.7400 /
1.6180	5014.7	1.8270	0.4490 
        6014.7	1.8070	0.4890  
		7014.7	1.770	0.5490 
		8014.7	1.7570	0.5990 
	    9014.7	1.7370	0.6310 /	
/
SOLUTION
EQUIL
	8400 2800 8450 0 8300 0 1 0 0 /
RSVD
8300 1.270
8450 1.270 /
SUMMARY
FOPR
WGOR
   'PROD1'
   'PROD2'
/
FGOR
WBHP
  'INJ'
  'PROD1'
  'PROD2'
/
WGIR
  'INJ'
  'PROD1'
  'PROD2'
/
WGIT
  'INJ'
  'PROD1'
  'PROD2'
/
WGPR
  'INJ'
  'PROD1'
  'PROD2'
/
WGPT
  'INJ'
  'PROD1'
  'PROD2'
/
WOIR
  'INJ'
  'PROD1'
  'PROD2'
/
WOIT
  'INJ'
  'PROD1'
  'PROD2'
/
WOPR
  'INJ'
  'PROD1'
  'PROD2'
/
WOPT
  'INJ'
  'PROD1'
  'PROD2'
/
WWIR
  'INJ'
  'PROD1'
  'PROD2'
/
WWIT
  'INJ'
  'PROD1'
  'PROD2'
/
WWPR
  'INJ'
  'PROD1'
  'PROD2'
/
WWPT
  'INJ'
  'PROD1'
  'PROD2'
/
SCHEDULE
RPTSCHED
	'PRES' 'SGAS' 'RS' 'WELLS' /
RPTRST
	'BASIC=1' /
DRSDT
 0 /
WELSPECL
	'PROD1'	'G1' 'LGR1'	3	3	8400	'OIL' /
	'PROD2'	'G3' 'LGR1'	1	1	8400	'OIL' /
/
WELSPECS
	'INJ'	'G2' 	2	1	8335	'GAS' /
/
COMPDATL
	'PROD1' 'LGR1'	3	3	1	1	'OPEN'	1*	1*	0.5 /
	'PROD2' 'LGR1'	1	1	1	1	'OPEN'	1*	1*	0.5 /
/
COMPDAT
	'INJ'    2	1	1	1	'OPEN'	1*	1*	0.5 /
/
WCONPROD
        'PROD1' 'OPEN' 'ORAT' 20000 4* 1000 /
        'PROD2' 'OPEN' 'ORAT' 20000 4* 1000 /
/
WCONINJE
	'INJ'	'GAS'	'OPEN'	'RATE'	100000 1* 5014 /
/
TSTEP
0.1 1 31 
/
END
