RUNSPEC
TITLE
  SPE1 - CASE 1
DIMENS
  10 10 3 /
EQLDIMS
/
TABDIMS
/
WSEGDIMS
  2 10 1 1 /
OIL
GAS
WATER
DISGAS
FIELD
START
  1 'JAN' 2015 /
WELLDIMS
  2 9 1 2 /
UNIFIN
UNIFOUT
GRID
INIT
MAPUNITS
'FEET' /
MAPAXES 
2000.0 3100.0 
2000.0 3000.0
2100.0 3000 0  / 
DX 
  	300*1000 /
DY
	300*1000 /
DZ
	100*20 100*30 100*50 /
TOPS
	100*8325 /
PORO
  	300*0.3 /
PERMX
	100*500 100*50 100*200 /
PERMY
	100*500 100*50 100*200 /
PERMZ
	100*500 100*50 100*200 /
PROPS
PVTW
  	4017.55 1.038 3.22E-6 0.318 0.0 /
ROCK
	14.7 3E-6 /
SWOF
0.12	0  		 	1	0
0.18	4.64876033057851E-008	1	0
0.24	0.000000186		0.997	0
0.3	4.18388429752066E-007	0.98	0
0.36	7.43801652892562E-007	0.7	0
0.42	1.16219008264463E-006	0.35	0
0.48	1.67355371900826E-006	0.2	0
0.54	2.27789256198347E-006	0.09	0
0.6	2.97520661157025E-006	0.021	0
0.66	3.7654958677686E-006	0.01	0
0.72	4.64876033057851E-006	0.001	0
0.78	0.000005625		0.0001	0
0.84	6.69421487603306E-006	0	0
0.91	8.05914256198347E-006	0	0
1	0.00001			0	0 /
SGOF
0	0	1	0
0.001	0	1	0
0.02	0	0.997	0
0.05	0.005	0.980	0
0.12	0.025	0.700	0
0.2	0.075	0.350	0
0.25	0.125	0.200	0
0.3	0.190	0.090	0
0.4	0.410	0.021	0
0.45	0.60	0.010	0
0.5	0.72	0.001	0
0.6	0.87	0.0001	0
0.7	0.94	0.000	0
0.85	0.98	0.000	0 
0.88	0.984	0.000	0 /
DENSITY
   	53.66 64.49 0.0533 /
PVDG
14.700	166.666	0.008000
264.70	12.0930	0.009600
514.70	6.27400	0.011200
1014.7	3.19700	0.014000
2014.7	1.61400	0.018900
2514.7	1.29400	0.020800
3014.7	1.08000	0.022800
4014.7	0.81100	0.026800
5014.7	0.64900	0.030900
9014.7	0.38600	0.047000 /
PVTO
0.0010	14.7	1.0620	1.0400 /
0.0905	264.7	1.1500	0.9750 /
0.1800	514.7	1.2070	0.9100 /
0.3710	1014.7	1.2950	0.8300 /
0.6360	2014.7	1.4350	0.6950 /
0.7750	2514.7	1.5000	0.6410 /
0.9300	3014.7	1.5650	0.5940 /
1.2700	4014.7	1.6950	0.5100 
	9014.7	1.5790	0.7400 /
1.6180	5014.7	1.8270	0.4490 
	9014.7	1.7370	0.6310 /	
/
SOLUTION
EQUIL
	8400 4800 8450 0 8300 0 1 0 0 /
RSVD
8300 1.270
8450 1.270 /
SUMMARY
FOPR
WGOR
  'PROD'
/
FGOR
BPR
1  1  1 /
10 10 3 /
/
BGSAT
1  1  1 /
1  1  2 /
1  1  3 /
10 1  1 /
10 1  2 /
10 1  3 /
10 10 1 /
10 10 2 /
10 10 3 /
/
WBHP
  'INJ'
  'PROD'
/
WGIR
  'INJ'
  'PROD'
/
WGIT
  'INJ'
  'PROD'
/
WGPR
  'INJ'
  'PROD'
/
WGPT
  'INJ'
  'PROD'
/
WOIR
  'INJ'
  'PROD'
/
WOIT
  'INJ'
  'PROD'
/
WOPR
  'INJ'
  'PROD'
/
WOPT
  'INJ'
  'PROD'
/
WWIR
  'INJ'
  'PROD'
/
WWIT
  'INJ'
  'PROD'
/
WWPR
  'INJ'
  'PROD'
/
WWPT
  'INJ'
  'PROD'
/
SCHEDULE
RPTSCHED
	'WELSPECS' /
RPTRST
	'BASIC=1' /
DRSDT
 0 /

WELSPECS
   INJ   'G1'     9  9  1*     'GAS'    /
   PROD  'G1'     2  2  1*     'OIL'    /
/

WELTRAJ
-- WELNAME  IBRANCH  XCORD     YCORD     TVD       MD
'INJ'  1*  10400	     11600	     8325.0      8325.0  /
'INJ'  1*  10400	     11600       8425.0      8425.0  /
'PROD' 1*  3400.00     4500.00     8325.00     8325.00 /
'PROD' 1*  3858.19     4688.67     8374.60     8822.99 /
'PROD' 1*  5326.76     6005.95     8403.97     10796.0 /
'PROD' 1*  6500.00     7300.00     8410.00     12542.7 /
/

WELSEGS
-- Well     Dep 1          Tlen 1         Vol 1     Len&Dep     PresDrop
   INJ      8325.00000     8325.00000     1*        ABS         'HF-'    /
-- First Seg     Last Seg     Branch No     Outlet Seg     Length         Depth Change     Diam        Rough    
   2             2            1             1              8335.00000     1*       0.50000     0.0000000 /
   3             3            1             2              8360.00000     1*       0.50000     0.0000000 /
   4             4            1             3              8400.00000     1*       0.50000     0.0000000 /
/
WELSEGS
-- Well     Dep 1          Tlen 1         Vol 1     Len&Dep     PresDrop
   PROD     8325.00000     8325.00000     1*        ABS         'HF-'    /
-- First Seg     Last Seg     Branch No     Outlet Seg     Length          Depth Change     Diam        Rough    
   2             2            1             1              8425.40132      1*       0.50000     0.0000000 /
   3             3            1             2              8687.83219      1*       0.50000     0.0000000 /
   4             4            1             3              8931.68657      1*       0.50000     0.0000000 /
   5             5            1             4              9151.40517      1*       0.50000     0.0000000 /
   6             6            1             5              9823.15208      1*       0.50000     0.0000000 /
   7             7            1             6              10572.04932     1*       0.50000     0.0000000 /
   8             8            1             7              11292.71446     1*       0.50000     0.0000000 /
   9             9            1             8              11968.06602     1*       0.50000     0.0000000 /
   10            10           1             9              12340.26993     1*       0.50000     0.0000000 /
/

COMPTRAJ 
-- WELNAME IBRANCH  TOP	     BOT       REF  ICOMP  STATUS  SATNUM  CONFACT  DW	 KH	 SKIN  D_FACT
  'INJ'	   1*       8325.0   8425.0    1*   1*	   1*      1*      1*       0.5  1*  0.1   1*    /
  'PROD'   1*       8325.00  12542.7   1*   1*	   1*      1*      1*       0.5  1*  0.1   1*    /
/

WCONPROD
	'PROD' 'OPEN' 'ORAT' 20000 4* 1000 /
/
WCONINJE
	'INJ'	'GAS'	'OPEN'	'RATE'	100000 1* 9014 /
/
TSTEP
31 /
END
