-- Synthetic test deck based on Norne. This data set is meant to be a simple,
-- well-documented deck for the behaviour of SUMMARY specified output. Data
-- is mostly entered to *traceable* and does not necessarily make sense from
-- a simulation point of view.

START
10 MAI 2007 /
RUNSPEC

TITLE
SUMMARYTESTS

-- A simple 10x10x10 cube. Simple to reason about, large enough for all tests
DIMENS
 10 10 10 /

GRID

DX
1000*1 /
DY
1000*1 /
DZ
1000*1 /
TOPS
100*1 /

SUMMARY
DATE
PERFORMA
--
-- Field Data
-- Production Rates
FVPR
FWPR
FWPRH
FOPR
FOPRH
FGPR
FGPRH
FLPR
FLPRH
FGSR
FGCR
--FTPRSEA
-- Injection Rates
FVIR
FWIR
FWIRH
FGIR
FGIRH
-- Production Cummulatives
FVPT
FWPT
FOPT
FLPT
FLPTH
FGPT
FOPTH
FGPTH
FWPTH
FGST
FGCT
-- Injection Cummulatives
FVIT
FWIT
FWITH
FGIT
FGITH
-- In place
FWIP
FOIP
FGIP
-- Ratios
FWCT
FWCTH
FGOR
FGORH
-- Pressures
FPR
--BPR
--18 63 25 /
--18 63 26 /
--/
--  Region data
RPR
/
ROPT
/
RGPT
/
RWPT
/
RGFT
/
RWFT
/
ROIP
/
ROP
/
--  Group data --
GPR
/
GLPR
/
GOPT
/
GGPT
/
GWPT
/
GOPR
/
GLPR
/
GGPR
/
GWPR
/
GGIR
/
GGIRH
/
GGIT
/
GGITH
/
GWCT
/
GGOR
/
GWIR
/
GWIT
/
GWIRH
/
GWITH
/
GWPRH
/
GOPRH
/
GGPRH
/
GLPRH
/
GWPTH
/
GOPTH
/
GGPTH
/
GLPTH
/
-- Well Data
-- Production Rates
WWPR
/
WWPRH
/
WOPR
/
WOPRH
/
WGPR
/
WGPRH
/
WLPR
/
WLPRH
/

WLPT
/

WLPTH
/

-- Injection Rates
WWIR
 W_3
/
WWIT
 W_3
/
WWIRH
  W_3
/
WWITH
  W_3
/

WGIT
  W_3
/
WGIR
  W_3
/
WGIRH
  W_3
/
WGITH
  W_3
/

-- Production Cummulatives
WWPT
/
WWPTH
/
WOPT
/
WOPTH
/
WGPT
/
WGPTH
/
-- Tracers
--WTPRSEA
--/
--WTPTSEA
--/
-- Injection Cummulatives
WWIT
  W_3
/
-- Ratios
WWCT
/
WWCTH
/
WGOR
/
WGORH
/
WGLR
/
WGLRH
/


-- Performance
WBHP
/
WBHPH
/
WTHP
/
WTHPH
/
WPI
/
WBP
/
WBP4
/

-- Water injection per connection
CWIR
'W_3' /
/

-- Gas injection on 3 1 1 (45)
CGIR
'W_3' 3 1 1 /
/

CWIT
'W_3' /
/

CGIT
* /
/

-- Production per connection
-- Using all the different ways of specifying connections here
-- as an informal test that we still get the data we want
CWPR
 'W_1' 1 1 1 /
/

COPR
 'W_1' /
/

CGPR
 '*' /
/

CWPT
 'W_1' 1 1 1 /
/

COPT
 'W_1' /
/

CGPT
 '*' 1 1 1 /
/

---- Connection production rates
----CGFR
----'E-4AH' /
----/
----CWFR
----'E-2H' /
----/

SCHEDULE

-- Three wells, two producers (so that we can form a group) and one injector
WELSPECS
     'W_1'        'G_1'   1    1  3.33       'OIL'  7* /
     'W_2'        'G_1'   2    1  3.33       'OIL'  7* /
     'W_3'        'G_2'   3    1  3.92       'WATER'  7* /
/

-- Completion data.
COMPDAT
-- 'Well' I J K1 K2
-- Passing 0 to I/J means they'll get the well head I/J
    W_1 0 0 1 1 /
    W_2 0 0 1 1 /
    W_2 1 1 1 1 /
    W_3 0 0 1 1 /
/

WCONHIST
-- history rates are set so that W_1 produces 1, W_2 produces 2 etc.
-- index.offset.
-- organised as oil-water-gas
    W_1 SHUT ORAT 10.1 10 10.2 /
    W_2 SHUT ORAT 20.1 20 20.2 /
/

WCONINJH
-- Injection historical rates (water only, as we only support pure injectors)
    W_3 WATER STOP 30.0 /
/

TSTEP
-- register time steps (in days). This allows us to write *two* report steps (1
-- and 2. Without this, totals/accumulations would fail (segfault) when looking
-- up historical rates and volumes. These volumes however don't change, i.e.
-- every time step has the same set of values
10 10 /
