RUNSPEC

OIL
GAS
WATER


DIMENS
   10 10  1  /

GRID

DXV
10*1000.0
/

DYV
10*1000.0
/

DZ
100*20.0 
/

TOPS
100*10
/

NNC
1 1 1 2 1 1 0.5 /
1 1 1 1 2 1 1.0 /
/

NNC
1 1 1 2 1 1 0.5 /
1 2 1 1 2 1 1.0 /
2 2 1 2 2 1 1.0 /
/

EDIT

EDITNNC
1 1 1 2 1 1  2.0 /
1 2 1 1 2 1 10.0 /
3 2 1 3 2 1 10.0 /
2 2 1 2 2 1  2.0 /
2 2 1 2 2 1  3.0 /
/
