import datetime
import numpy
from typing import ClassVar, Dict, Iterator, List, Tuple, overload

C0nn: eclArrType
CHAR: eclArrType
DOUB: eclArrType
EDIT: eclSectionType
GRID: eclSectionType
INTE: eclArrType
LOGI: eclArrType
MESS: eclArrType
PROPS: eclSectionType
REAL: eclArrType
REGIONS: eclSectionType
RUNSPEC: eclSectionType
SCHEDULE: eclSectionType
SOLUTION: eclSectionType
SUMMARY: eclSectionType
current_ecl_state: EclipseState
current_report_step: int
current_schedule: Schedule
current_summary_state: SummaryState
class Builtin:
    def __init__(self) -> None: ...
    def __getitem__(self, arg0: str) -> ParserKeyword: ...
    @property
    def ACF(self) -> ParserKeyword: ...
    @property
    def ACTCO2S(self) -> ParserKeyword: ...
    @property
    def ACTDIMS(self) -> ParserKeyword: ...
    @property
    def ACTION(self) -> ParserKeyword: ...
    @property
    def ACTIONG(self) -> ParserKeyword: ...
    @property
    def ACTIONR(self) -> ParserKeyword: ...
    @property
    def ACTIONS(self) -> ParserKeyword: ...
    @property
    def ACTIONW(self) -> ParserKeyword: ...
    @property
    def ACTIONX(self) -> ParserKeyword: ...
    @property
    def ACTNUM(self) -> ParserKeyword: ...
    @property
    def ACTPARAM(self) -> ParserKeyword: ...
    @property
    def ADD(self) -> ParserKeyword: ...
    @property
    def ADDREG(self) -> ParserKeyword: ...
    @property
    def ADDZCORN(self) -> ParserKeyword: ...
    @property
    def ADSALNOD(self) -> ParserKeyword: ...
    @property
    def ADSORP(self) -> ParserKeyword: ...
    @property
    def AITS(self) -> ParserKeyword: ...
    @property
    def AITSOFF(self) -> ParserKeyword: ...
    @property
    def ALKADS(self) -> ParserKeyword: ...
    @property
    def ALKALINE(self) -> ParserKeyword: ...
    @property
    def ALKROCK(self) -> ParserKeyword: ...
    @property
    def ALL(self) -> ParserKeyword: ...
    @property
    def ALPOLADS(self) -> ParserKeyword: ...
    @property
    def ALSURFAD(self) -> ParserKeyword: ...
    @property
    def ALSURFST(self) -> ParserKeyword: ...
    @property
    def AMALGAM(self) -> ParserKeyword: ...
    @property
    def API(self) -> ParserKeyword: ...
    @property
    def APIGROUP(self) -> ParserKeyword: ...
    @property
    def APILIM(self) -> ParserKeyword: ...
    @property
    def APIVD(self) -> ParserKeyword: ...
    @property
    def AQANCONL(self) -> ParserKeyword: ...
    @property
    def AQANNC(self) -> ParserKeyword: ...
    @property
    def AQANTRC(self) -> ParserKeyword: ...
    @property
    def AQUALIST(self) -> ParserKeyword: ...
    @property
    def AQUANCON(self) -> ParserKeyword: ...
    @property
    def AQUCHGAS(self) -> ParserKeyword: ...
    @property
    def AQUCHWAT(self) -> ParserKeyword: ...
    @property
    def AQUCON(self) -> ParserKeyword: ...
    @property
    def AQUCT(self) -> ParserKeyword: ...
    @property
    def AQUCWFAC(self) -> ParserKeyword: ...
    @property
    def AQUDIMS(self) -> ParserKeyword: ...
    @property
    def AQUFET(self) -> ParserKeyword: ...
    @property
    def AQUFETP(self) -> ParserKeyword: ...
    @property
    def AQUFLUX(self) -> ParserKeyword: ...
    @property
    def AQUIFER_PROBE_ANALYTIC(self) -> ParserKeyword: ...
    @property
    def AQUIFER_PROBE_ANALYTIC_NAMED(self) -> ParserKeyword: ...
    @property
    def AQUIFER_PROBE_NUMERIC(self) -> ParserKeyword: ...
    @property
    def AQUNNC(self) -> ParserKeyword: ...
    @property
    def AQUNUM(self) -> ParserKeyword: ...
    @property
    def AQUTAB(self) -> ParserKeyword: ...
    @property
    def AUTOCOAR(self) -> ParserKeyword: ...
    @property
    def AUTOREF(self) -> ParserKeyword: ...
    @property
    def BC(self) -> ParserKeyword: ...
    @property
    def BCCON(self) -> ParserKeyword: ...
    @property
    def BCPROP(self) -> ParserKeyword: ...
    @property
    def BDENSITY(self) -> ParserKeyword: ...
    @property
    def BGGI(self) -> ParserKeyword: ...
    @property
    def BIC(self) -> ParserKeyword: ...
    @property
    def BIGMODEL(self) -> ParserKeyword: ...
    @property
    def BIOTCOEF(self) -> ParserKeyword: ...
    @property
    def BLACKOIL(self) -> ParserKeyword: ...
    @property
    def BLOCK_PROBE(self) -> ParserKeyword: ...
    @property
    def BLOCK_PROBE300(self) -> ParserKeyword: ...
    @property
    def BOGI(self) -> ParserKeyword: ...
    @property
    def BOUNDARY(self) -> ParserKeyword: ...
    @property
    def BOX(self) -> ParserKeyword: ...
    @property
    def BPARA(self) -> ParserKeyword: ...
    @property
    def BPIDIMS(self) -> ParserKeyword: ...
    @property
    def BRANPROP(self) -> ParserKeyword: ...
    @property
    def BRINE(self) -> ParserKeyword: ...
    @property
    def BTOBALFA(self) -> ParserKeyword: ...
    @property
    def BTOBALFV(self) -> ParserKeyword: ...
    @property
    def CALTRAC(self) -> ParserKeyword: ...
    @property
    def CARFIN(self) -> ParserKeyword: ...
    @property
    def CART(self) -> ParserKeyword: ...
    @property
    def CBMOPTS(self) -> ParserKeyword: ...
    @property
    def CECON(self) -> ParserKeyword: ...
    @property
    def CECONT(self) -> ParserKeyword: ...
    @property
    def CIRCLE(self) -> ParserKeyword: ...
    @property
    def CNAMES(self) -> ParserKeyword: ...
    @property
    def CO2SOL(self) -> ParserKeyword: ...
    @property
    def CO2STOR(self) -> ParserKeyword: ...
    @property
    def CO2STORE(self) -> ParserKeyword: ...
    @property
    def COAL(self) -> ParserKeyword: ...
    @property
    def COALADS(self) -> ParserKeyword: ...
    @property
    def COALNUM(self) -> ParserKeyword: ...
    @property
    def COALPP(self) -> ParserKeyword: ...
    @property
    def COARSEN(self) -> ParserKeyword: ...
    @property
    def COLLAPSE(self) -> ParserKeyword: ...
    @property
    def COLUMNS(self) -> ParserKeyword: ...
    @property
    def COMPDAT(self) -> ParserKeyword: ...
    @property
    def COMPDATX(self) -> ParserKeyword: ...
    @property
    def COMPFLSH(self) -> ParserKeyword: ...
    @property
    def COMPIMB(self) -> ParserKeyword: ...
    @property
    def COMPINJK(self) -> ParserKeyword: ...
    @property
    def COMPLMPL(self) -> ParserKeyword: ...
    @property
    def COMPLUMP(self) -> ParserKeyword: ...
    @property
    def COMPOFF(self) -> ParserKeyword: ...
    @property
    def COMPORD(self) -> ParserKeyword: ...
    @property
    def COMPRIV(self) -> ParserKeyword: ...
    @property
    def COMPRP(self) -> ParserKeyword: ...
    @property
    def COMPRPL(self) -> ParserKeyword: ...
    @property
    def COMPS(self) -> ParserKeyword: ...
    @property
    def COMPSEGL(self) -> ParserKeyword: ...
    @property
    def COMPSEGS(self) -> ParserKeyword: ...
    @property
    def COMPTRAJ(self) -> ParserKeyword: ...
    @property
    def COMPVE(self) -> ParserKeyword: ...
    @property
    def COMPVEL(self) -> ParserKeyword: ...
    @property
    def CONNECTION_PROBE(self) -> ParserKeyword: ...
    @property
    def CONNECTION_PROBE_OPM(self) -> ParserKeyword: ...
    @property
    def COORD(self) -> ParserKeyword: ...
    @property
    def COORDSYS(self) -> ParserKeyword: ...
    @property
    def COPY(self) -> ParserKeyword: ...
    @property
    def COPYBOX(self) -> ParserKeyword: ...
    @property
    def COPYREG(self) -> ParserKeyword: ...
    @property
    def CPIFACT(self) -> ParserKeyword: ...
    @property
    def CPIFACTL(self) -> ParserKeyword: ...
    @property
    def CPR(self) -> ParserKeyword: ...
    @property
    def CREF(self) -> ParserKeyword: ...
    @property
    def CREFW(self) -> ParserKeyword: ...
    @property
    def CREFWS(self) -> ParserKeyword: ...
    @property
    def CRITPERM(self) -> ParserKeyword: ...
    @property
    def CSKIN(self) -> ParserKeyword: ...
    @property
    def DATE(self) -> ParserKeyword: ...
    @property
    def DATES(self) -> ParserKeyword: ...
    @property
    def DATUM(self) -> ParserKeyword: ...
    @property
    def DATUMR(self) -> ParserKeyword: ...
    @property
    def DATUMRX(self) -> ParserKeyword: ...
    @property
    def DCQDEFN(self) -> ParserKeyword: ...
    @property
    def DEBUG_(self) -> ParserKeyword: ...
    @property
    def DELAYACT(self) -> ParserKeyword: ...
    @property
    def DENSITY(self) -> ParserKeyword: ...
    @property
    def DEPTH(self) -> ParserKeyword: ...
    @property
    def DEPTHTAB(self) -> ParserKeyword: ...
    @property
    def DEPTHZ(self) -> ParserKeyword: ...
    @property
    def DIAGDISP(self) -> ParserKeyword: ...
    @property
    def DIFF(self) -> ParserKeyword: ...
    @property
    def DIFFAGAS(self) -> ParserKeyword: ...
    @property
    def DIFFAWAT(self) -> ParserKeyword: ...
    @property
    def DIFFC(self) -> ParserKeyword: ...
    @property
    def DIFFCGAS(self) -> ParserKeyword: ...
    @property
    def DIFFCOAL(self) -> ParserKeyword: ...
    @property
    def DIFFCWAT(self) -> ParserKeyword: ...
    @property
    def DIFFDP(self) -> ParserKeyword: ...
    @property
    def DIFFMMF(self) -> ParserKeyword: ...
    @property
    def DIFFMR(self) -> ParserKeyword: ...
    @property
    def DIFFMTHT(self) -> ParserKeyword: ...
    @property
    def DIFFMX(self) -> ParserKeyword: ...
    @property
    def DIFFMY(self) -> ParserKeyword: ...
    @property
    def DIFFMZ(self) -> ParserKeyword: ...
    @property
    def DIFFR(self) -> ParserKeyword: ...
    @property
    def DIFFTHT(self) -> ParserKeyword: ...
    @property
    def DIFFUSE(self) -> ParserKeyword: ...
    @property
    def DIFFX(self) -> ParserKeyword: ...
    @property
    def DIFFY(self) -> ParserKeyword: ...
    @property
    def DIFFZ(self) -> ParserKeyword: ...
    @property
    def DIMENS(self) -> ParserKeyword: ...
    @property
    def DIMPES(self) -> ParserKeyword: ...
    @property
    def DIMPLICT(self) -> ParserKeyword: ...
    @property
    def DISGAS(self) -> ParserKeyword: ...
    @property
    def DISGASW(self) -> ParserKeyword: ...
    @property
    def DISPDIMS(self) -> ParserKeyword: ...
    @property
    def DISPERC(self) -> ParserKeyword: ...
    @property
    def DISPERSE(self) -> ParserKeyword: ...
    @property
    def DOMAINS(self) -> ParserKeyword: ...
    @property
    def DPGRID(self) -> ParserKeyword: ...
    @property
    def DPKRMOD(self) -> ParserKeyword: ...
    @property
    def DPNUM(self) -> ParserKeyword: ...
    @property
    def DR(self) -> ParserKeyword: ...
    @property
    def DREF(self) -> ParserKeyword: ...
    @property
    def DREFS(self) -> ParserKeyword: ...
    @property
    def DRILPRI(self) -> ParserKeyword: ...
    @property
    def DRSDT(self) -> ParserKeyword: ...
    @property
    def DRSDTCON(self) -> ParserKeyword: ...
    @property
    def DRSDTR(self) -> ParserKeyword: ...
    @property
    def DRV(self) -> ParserKeyword: ...
    @property
    def DRVDT(self) -> ParserKeyword: ...
    @property
    def DRVDTR(self) -> ParserKeyword: ...
    @property
    def DSPDEINT(self) -> ParserKeyword: ...
    @property
    def DTHETA(self) -> ParserKeyword: ...
    @property
    def DTHETAV(self) -> ParserKeyword: ...
    @property
    def DUALPERM(self) -> ParserKeyword: ...
    @property
    def DUALPORO(self) -> ParserKeyword: ...
    @property
    def DUMPCUPL(self) -> ParserKeyword: ...
    @property
    def DUMPFLUX(self) -> ParserKeyword: ...
    @property
    def DX(self) -> ParserKeyword: ...
    @property
    def DXV(self) -> ParserKeyword: ...
    @property
    def DY(self) -> ParserKeyword: ...
    @property
    def DYNAMICR(self) -> ParserKeyword: ...
    @property
    def DYNRDIMS(self) -> ParserKeyword: ...
    @property
    def DYV(self) -> ParserKeyword: ...
    @property
    def DZ(self) -> ParserKeyword: ...
    @property
    def DZMATRIX(self) -> ParserKeyword: ...
    @property
    def DZMTRX(self) -> ParserKeyword: ...
    @property
    def DZMTRXV(self) -> ParserKeyword: ...
    @property
    def DZNET(self) -> ParserKeyword: ...
    @property
    def DZV(self) -> ParserKeyword: ...
    @property
    def ECHO(self) -> ParserKeyword: ...
    @property
    def ECLMC(self) -> ParserKeyword: ...
    @property
    def EDIT(self) -> ParserKeyword: ...
    @property
    def EDITNNC(self) -> ParserKeyword: ...
    @property
    def EDITNNCR(self) -> ParserKeyword: ...
    @property
    def EHYSTR(self) -> ParserKeyword: ...
    @property
    def EHYSTRR(self) -> ParserKeyword: ...
    @property
    def END(self) -> ParserKeyword: ...
    @property
    def ENDACTIO(self) -> ParserKeyword: ...
    @property
    def ENDBOX(self) -> ParserKeyword: ...
    @property
    def ENDDYN(self) -> ParserKeyword: ...
    @property
    def ENDFIN(self) -> ParserKeyword: ...
    @property
    def ENDINC(self) -> ParserKeyword: ...
    @property
    def ENDNUM(self) -> ParserKeyword: ...
    @property
    def ENDPOINT_SPECIFIERS(self) -> ParserKeyword: ...
    @property
    def ENDSCALE(self) -> ParserKeyword: ...
    @property
    def ENDSKIP(self) -> ParserKeyword: ...
    @property
    def ENKRVD(self) -> ParserKeyword: ...
    @property
    def ENPCVD(self) -> ParserKeyword: ...
    @property
    def ENPTVD(self) -> ParserKeyword: ...
    @property
    def ENSPCVD(self) -> ParserKeyword: ...
    @property
    def EOS(self) -> ParserKeyword: ...
    @property
    def EOSNUM(self) -> ParserKeyword: ...
    @property
    def EPSDBGS(self) -> ParserKeyword: ...
    @property
    def EPSDEBUG(self) -> ParserKeyword: ...
    @property
    def EQLDIMS(self) -> ParserKeyword: ...
    @property
    def EQLNUM(self) -> ParserKeyword: ...
    @property
    def EQLOPTS(self) -> ParserKeyword: ...
    @property
    def EQLZCORN(self) -> ParserKeyword: ...
    @property
    def EQUALREG(self) -> ParserKeyword: ...
    @property
    def EQUALS(self) -> ParserKeyword: ...
    @property
    def EQUIL(self) -> ParserKeyword: ...
    @property
    def ESSNODE(self) -> ParserKeyword: ...
    @property
    def EXCAVATE(self) -> ParserKeyword: ...
    @property
    def EXCEL(self) -> ParserKeyword: ...
    @property
    def EXIT(self) -> ParserKeyword: ...
    @property
    def EXTFIN(self) -> ParserKeyword: ...
    @property
    def EXTHOST(self) -> ParserKeyword: ...
    @property
    def EXTRAPMS(self) -> ParserKeyword: ...
    @property
    def EXTREPGL(self) -> ParserKeyword: ...
    @property
    def FAULTDIM(self) -> ParserKeyword: ...
    @property
    def FAULTS(self) -> ParserKeyword: ...
    @property
    def FBHPDEF(self) -> ParserKeyword: ...
    @property
    def FHERCHBL(self) -> ParserKeyword: ...
    @property
    def FIELD(self) -> ParserKeyword: ...
    @property
    def FIELDSEP(self) -> ParserKeyword: ...
    @property
    def FIELD_PROBE(self) -> ParserKeyword: ...
    @property
    def FIELD_PROBE_OPM(self) -> ParserKeyword: ...
    @property
    def FILEUNIT(self) -> ParserKeyword: ...
    @property
    def FILLEPS(self) -> ParserKeyword: ...
    @property
    def FIPNUM(self) -> ParserKeyword: ...
    @property
    def FIPOWG(self) -> ParserKeyword: ...
    @property
    def FIPSEP(self) -> ParserKeyword: ...
    @property
    def FIP_PROBE(self) -> ParserKeyword: ...
    @property
    def FLUXNUM(self) -> ParserKeyword: ...
    @property
    def FLUXREG(self) -> ParserKeyword: ...
    @property
    def FLUXTYPE(self) -> ParserKeyword: ...
    @property
    def FMTHMD(self) -> ParserKeyword: ...
    @property
    def FMTIN(self) -> ParserKeyword: ...
    @property
    def FMTOUT(self) -> ParserKeyword: ...
    @property
    def FMWSET(self) -> ParserKeyword: ...
    @property
    def FOAM(self) -> ParserKeyword: ...
    @property
    def FOAMADS(self) -> ParserKeyword: ...
    @property
    def FOAMDCYO(self) -> ParserKeyword: ...
    @property
    def FOAMDCYW(self) -> ParserKeyword: ...
    @property
    def FOAMFCN(self) -> ParserKeyword: ...
    @property
    def FOAMFRM(self) -> ParserKeyword: ...
    @property
    def FOAMFSC(self) -> ParserKeyword: ...
    @property
    def FOAMFSO(self) -> ParserKeyword: ...
    @property
    def FOAMFST(self) -> ParserKeyword: ...
    @property
    def FOAMFSW(self) -> ParserKeyword: ...
    @property
    def FOAMMOB(self) -> ParserKeyword: ...
    @property
    def FOAMMOBP(self) -> ParserKeyword: ...
    @property
    def FOAMMOBS(self) -> ParserKeyword: ...
    @property
    def FOAMOPTS(self) -> ParserKeyword: ...
    @property
    def FOAMROCK(self) -> ParserKeyword: ...
    @property
    def FORMFEED(self) -> ParserKeyword: ...
    @property
    def FRICTION(self) -> ParserKeyword: ...
    @property
    def FULLIMP(self) -> ParserKeyword: ...
    @property
    def GAS(self) -> ParserKeyword: ...
    @property
    def GASBEGIN(self) -> ParserKeyword: ...
    @property
    def GASCONC(self) -> ParserKeyword: ...
    @property
    def GASDENT(self) -> ParserKeyword: ...
    @property
    def GASEND(self) -> ParserKeyword: ...
    @property
    def GASFCOMP(self) -> ParserKeyword: ...
    @property
    def GASFDECR(self) -> ParserKeyword: ...
    @property
    def GASFDELC(self) -> ParserKeyword: ...
    @property
    def GASFIELD(self) -> ParserKeyword: ...
    @property
    def GASFTARG(self) -> ParserKeyword: ...
    @property
    def GASJT(self) -> ParserKeyword: ...
    @property
    def GASMONTH(self) -> ParserKeyword: ...
    @property
    def GASPERIO(self) -> ParserKeyword: ...
    @property
    def GASSATC(self) -> ParserKeyword: ...
    @property
    def GASVISCT(self) -> ParserKeyword: ...
    @property
    def GASWAT(self) -> ParserKeyword: ...
    @property
    def GASYEAR(self) -> ParserKeyword: ...
    @property
    def GCALECON(self) -> ParserKeyword: ...
    @property
    def GCOMPIDX(self) -> ParserKeyword: ...
    @property
    def GCONCAL(self) -> ParserKeyword: ...
    @property
    def GCONENG(self) -> ParserKeyword: ...
    @property
    def GCONINJE(self) -> ParserKeyword: ...
    @property
    def GCONPRI(self) -> ParserKeyword: ...
    @property
    def GCONPROD(self) -> ParserKeyword: ...
    @property
    def GCONSALE(self) -> ParserKeyword: ...
    @property
    def GCONSUMP(self) -> ParserKeyword: ...
    @property
    def GCONTOL(self) -> ParserKeyword: ...
    @property
    def GCUTBACK(self) -> ParserKeyword: ...
    @property
    def GCUTBACT(self) -> ParserKeyword: ...
    @property
    def GCVD(self) -> ParserKeyword: ...
    @property
    def GDCQ(self) -> ParserKeyword: ...
    @property
    def GDCQECON(self) -> ParserKeyword: ...
    @property
    def GDFILE(self) -> ParserKeyword: ...
    @property
    def GDIMS(self) -> ParserKeyword: ...
    @property
    def GDORIENT(self) -> ParserKeyword: ...
    @property
    def GDRILPOT(self) -> ParserKeyword: ...
    @property
    def GECON(self) -> ParserKeyword: ...
    @property
    def GECONT(self) -> ParserKeyword: ...
    @property
    def GEFAC(self) -> ParserKeyword: ...
    @property
    def GETDATA(self) -> ParserKeyword: ...
    @property
    def GETGLOB(self) -> ParserKeyword: ...
    @property
    def GI(self) -> ParserKeyword: ...
    @property
    def GIALL(self) -> ParserKeyword: ...
    @property
    def GIMODEL(self) -> ParserKeyword: ...
    @property
    def GINODE(self) -> ParserKeyword: ...
    @property
    def GLIFTLIM(self) -> ParserKeyword: ...
    @property
    def GLIFTOPT(self) -> ParserKeyword: ...
    @property
    def GMWSET(self) -> ParserKeyword: ...
    @property
    def GNETDP(self) -> ParserKeyword: ...
    @property
    def GNETINJE(self) -> ParserKeyword: ...
    @property
    def GNETPUMP(self) -> ParserKeyword: ...
    @property
    def GPMAINT(self) -> ParserKeyword: ...
    @property
    def GRADGRUP(self) -> ParserKeyword: ...
    @property
    def GRADRESV(self) -> ParserKeyword: ...
    @property
    def GRADRFT(self) -> ParserKeyword: ...
    @property
    def GRADWELL(self) -> ParserKeyword: ...
    @property
    def GRAVCONS(self) -> ParserKeyword: ...
    @property
    def GRAVDR(self) -> ParserKeyword: ...
    @property
    def GRAVDRB(self) -> ParserKeyword: ...
    @property
    def GRAVDRM(self) -> ParserKeyword: ...
    @property
    def GRAVITY(self) -> ParserKeyword: ...
    @property
    def GRDREACH(self) -> ParserKeyword: ...
    @property
    def GRID(self) -> ParserKeyword: ...
    @property
    def GRIDFILE(self) -> ParserKeyword: ...
    @property
    def GRIDOPTS(self) -> ParserKeyword: ...
    @property
    def GRIDUNIT(self) -> ParserKeyword: ...
    @property
    def GROUP_PROBE(self) -> ParserKeyword: ...
    @property
    def GRUPMAST(self) -> ParserKeyword: ...
    @property
    def GRUPNET(self) -> ParserKeyword: ...
    @property
    def GRUPRIG(self) -> ParserKeyword: ...
    @property
    def GRUPSLAV(self) -> ParserKeyword: ...
    @property
    def GRUPTARG(self) -> ParserKeyword: ...
    @property
    def GRUPTREE(self) -> ParserKeyword: ...
    @property
    def GSATINJE(self) -> ParserKeyword: ...
    @property
    def GSATPROD(self) -> ParserKeyword: ...
    @property
    def GSEPCOND(self) -> ParserKeyword: ...
    @property
    def GSF(self) -> ParserKeyword: ...
    @property
    def GSSCPTST(self) -> ParserKeyword: ...
    @property
    def GSWINGF(self) -> ParserKeyword: ...
    @property
    def GTADD(self) -> ParserKeyword: ...
    @property
    def GTMULT(self) -> ParserKeyword: ...
    @property
    def GUIDECAL(self) -> ParserKeyword: ...
    @property
    def GUIDERAT(self) -> ParserKeyword: ...
    @property
    def GUPFREQ(self) -> ParserKeyword: ...
    @property
    def GWRTWCV(self) -> ParserKeyword: ...
    @property
    def H2SOL(self) -> ParserKeyword: ...
    @property
    def H2STORE(self) -> ParserKeyword: ...
    @property
    def HALFTRAN(self) -> ParserKeyword: ...
    @property
    def HAxxxxxx(self) -> ParserKeyword: ...
    @property
    def HBNUM(self) -> ParserKeyword: ...
    @property
    def HDISP(self) -> ParserKeyword: ...
    @property
    def HEATCR(self) -> ParserKeyword: ...
    @property
    def HEATCRT(self) -> ParserKeyword: ...
    @property
    def HMAQUCT(self) -> ParserKeyword: ...
    @property
    def HMAQUFET(self) -> ParserKeyword: ...
    @property
    def HMAQUNUM(self) -> ParserKeyword: ...
    @property
    def HMDIMS(self) -> ParserKeyword: ...
    @property
    def HMFAULTS(self) -> ParserKeyword: ...
    @property
    def HMMLAQUN(self) -> ParserKeyword: ...
    @property
    def HMMLCTAQ(self) -> ParserKeyword: ...
    @property
    def HMMLFTAQ(self) -> ParserKeyword: ...
    @property
    def HMMLTWCN(self) -> ParserKeyword: ...
    @property
    def HMMULTFT(self) -> ParserKeyword: ...
    @property
    def HMMULTSG(self) -> ParserKeyword: ...
    @property
    def HMMULTxx(self) -> ParserKeyword: ...
    @property
    def HMPROPS(self) -> ParserKeyword: ...
    @property
    def HMROCK(self) -> ParserKeyword: ...
    @property
    def HMROCKT(self) -> ParserKeyword: ...
    @property
    def HMRREF(self) -> ParserKeyword: ...
    @property
    def HMWELCON(self) -> ParserKeyword: ...
    @property
    def HMWPIMLT(self) -> ParserKeyword: ...
    @property
    def HMxxxxxx(self) -> ParserKeyword: ...
    @property
    def HRFIN(self) -> ParserKeyword: ...
    @property
    def HWELLS(self) -> ParserKeyword: ...
    @property
    def HWKRO(self) -> ParserKeyword: ...
    @property
    def HWKRORG(self) -> ParserKeyword: ...
    @property
    def HWKRORW(self) -> ParserKeyword: ...
    @property
    def HWKRW(self) -> ParserKeyword: ...
    @property
    def HWKRWR(self) -> ParserKeyword: ...
    @property
    def HWPCW(self) -> ParserKeyword: ...
    @property
    def HWSNUM(self) -> ParserKeyword: ...
    @property
    def HWSOGCR(self) -> ParserKeyword: ...
    @property
    def HWSOWCR(self) -> ParserKeyword: ...
    @property
    def HWSWCR(self) -> ParserKeyword: ...
    @property
    def HWSWL(self) -> ParserKeyword: ...
    @property
    def HWSWLPC(self) -> ParserKeyword: ...
    @property
    def HWSWU(self) -> ParserKeyword: ...
    @property
    def HXFIN(self) -> ParserKeyword: ...
    @property
    def HYDRHEAD(self) -> ParserKeyword: ...
    @property
    def HYFIN(self) -> ParserKeyword: ...
    @property
    def HYMOBGDR(self) -> ParserKeyword: ...
    @property
    def HYST(self) -> ParserKeyword: ...
    @property
    def HYSTCHCK(self) -> ParserKeyword: ...
    @property
    def HZFIN(self) -> ParserKeyword: ...
    @property
    def IHOST(self) -> ParserKeyword: ...
    @property
    def IMBNUM(self) -> ParserKeyword: ...
    @property
    def IMBNUMMF(self) -> ParserKeyword: ...
    @property
    def IMKRVD(self) -> ParserKeyword: ...
    @property
    def IMPCVD(self) -> ParserKeyword: ...
    @property
    def IMPES(self) -> ParserKeyword: ...
    @property
    def IMPLICIT(self) -> ParserKeyword: ...
    @property
    def IMPORT(self) -> ParserKeyword: ...
    @property
    def IMPTVD(self) -> ParserKeyword: ...
    @property
    def IMSPCVD(self) -> ParserKeyword: ...
    @property
    def INCLUDE(self) -> ParserKeyword: ...
    @property
    def INIT(self) -> ParserKeyword: ...
    @property
    def INRAD(self) -> ParserKeyword: ...
    @property
    def INSPEC(self) -> ParserKeyword: ...
    @property
    def INTPC(self) -> ParserKeyword: ...
    @property
    def IONROCK(self) -> ParserKeyword: ...
    @property
    def IONXROCK(self) -> ParserKeyword: ...
    @property
    def IONXSURF(self) -> ParserKeyword: ...
    @property
    def IPCG(self) -> ParserKeyword: ...
    @property
    def IPCW(self) -> ParserKeyword: ...
    @property
    def ISGCR(self) -> ParserKeyword: ...
    @property
    def ISGL(self) -> ParserKeyword: ...
    @property
    def ISGLPC(self) -> ParserKeyword: ...
    @property
    def ISGU(self) -> ParserKeyword: ...
    @property
    def ISOGCR(self) -> ParserKeyword: ...
    @property
    def ISOLNUM(self) -> ParserKeyword: ...
    @property
    def ISOWCR(self) -> ParserKeyword: ...
    @property
    def ISWCR(self) -> ParserKeyword: ...
    @property
    def ISWL(self) -> ParserKeyword: ...
    @property
    def ISWLPC(self) -> ParserKeyword: ...
    @property
    def ISWU(self) -> ParserKeyword: ...
    @property
    def JFUNC(self) -> ParserKeyword: ...
    @property
    def JFUNCR(self) -> ParserKeyword: ...
    @property
    def KRNUM(self) -> ParserKeyword: ...
    @property
    def KRNUMMF(self) -> ParserKeyword: ...
    @property
    def LAB(self) -> ParserKeyword: ...
    @property
    def LANGMPL(self) -> ParserKeyword: ...
    @property
    def LANGMUIR(self) -> ParserKeyword: ...
    @property
    def LANGSOLV(self) -> ParserKeyword: ...
    @property
    def LCUNIT(self) -> ParserKeyword: ...
    @property
    def LGR(self) -> ParserKeyword: ...
    @property
    def LGRCOPY(self) -> ParserKeyword: ...
    @property
    def LGRFREE(self) -> ParserKeyword: ...
    @property
    def LGRLOCK(self) -> ParserKeyword: ...
    @property
    def LGROFF(self) -> ParserKeyword: ...
    @property
    def LGRON(self) -> ParserKeyword: ...
    @property
    def LICENSES(self) -> ParserKeyword: ...
    @property
    def LIFTOPT(self) -> ParserKeyword: ...
    @property
    def LINCOM(self) -> ParserKeyword: ...
    @property
    def LINKPERM(self) -> ParserKeyword: ...
    @property
    def LIVEOIL(self) -> ParserKeyword: ...
    @property
    def LKRO(self) -> ParserKeyword: ...
    @property
    def LKRORG(self) -> ParserKeyword: ...
    @property
    def LKRORW(self) -> ParserKeyword: ...
    @property
    def LKRW(self) -> ParserKeyword: ...
    @property
    def LKRWR(self) -> ParserKeyword: ...
    @property
    def LOAD(self) -> ParserKeyword: ...
    @property
    def LOWSALT(self) -> ParserKeyword: ...
    @property
    def LPCW(self) -> ParserKeyword: ...
    @property
    def LSALTFNC(self) -> ParserKeyword: ...
    @property
    def LSLTWNUM(self) -> ParserKeyword: ...
    @property
    def LSNUM(self) -> ParserKeyword: ...
    @property
    def LSOGCR(self) -> ParserKeyword: ...
    @property
    def LSOWCR(self) -> ParserKeyword: ...
    @property
    def LSWCR(self) -> ParserKeyword: ...
    @property
    def LSWL(self) -> ParserKeyword: ...
    @property
    def LSWLPC(self) -> ParserKeyword: ...
    @property
    def LSWU(self) -> ParserKeyword: ...
    @property
    def LTOSIGMA(self) -> ParserKeyword: ...
    @property
    def LWKRO(self) -> ParserKeyword: ...
    @property
    def LWKRORG(self) -> ParserKeyword: ...
    @property
    def LWKRORW(self) -> ParserKeyword: ...
    @property
    def LWKRW(self) -> ParserKeyword: ...
    @property
    def LWKRWR(self) -> ParserKeyword: ...
    @property
    def LWPCW(self) -> ParserKeyword: ...
    @property
    def LWSLTNUM(self) -> ParserKeyword: ...
    @property
    def LWSNUM(self) -> ParserKeyword: ...
    @property
    def LWSOGCR(self) -> ParserKeyword: ...
    @property
    def LWSOWCR(self) -> ParserKeyword: ...
    @property
    def LWSWCR(self) -> ParserKeyword: ...
    @property
    def LWSWL(self) -> ParserKeyword: ...
    @property
    def LWSWLPC(self) -> ParserKeyword: ...
    @property
    def LWSWU(self) -> ParserKeyword: ...
    @property
    def LX(self) -> ParserKeyword: ...
    @property
    def LXFIN(self) -> ParserKeyword: ...
    @property
    def LY(self) -> ParserKeyword: ...
    @property
    def LYFIN(self) -> ParserKeyword: ...
    @property
    def LZ(self) -> ParserKeyword: ...
    @property
    def LZFIN(self) -> ParserKeyword: ...
    @property
    def MAPAXES(self) -> ParserKeyword: ...
    @property
    def MAPUNITS(self) -> ParserKeyword: ...
    @property
    def MASSFLOW(self) -> ParserKeyword: ...
    @property
    def MATCORR(self) -> ParserKeyword: ...
    @property
    def MAXVALUE(self) -> ParserKeyword: ...
    @property
    def MECH(self) -> ParserKeyword: ...
    @property
    def MEMORY(self) -> ParserKeyword: ...
    @property
    def MESSAGE(self) -> ParserKeyword: ...
    @property
    def MESSAGES(self) -> ParserKeyword: ...
    @property
    def MESSOPTS(self) -> ParserKeyword: ...
    @property