import datetime
import numpy
import typing
from typing import ClassVar, Dict, Iterator, List, Tuple, overload

C0nn: eclArrType
CHAR: eclArrType
DOUB: eclArrType
EDIT: eclSectionType
GRID: eclSectionType
INTE: eclArrType
LOGI: eclArrType
MESS: eclArrType
PROPS: eclSectionType
REAL: eclArrType
REGIONS: eclSectionType
RUNSPEC: eclSectionType
SCHEDULE: eclSectionType
SOLUTION: eclSectionType
SUMMARY: eclSectionType

current_ecl_state: EclipseState
current_report_step: int
current_schedule: Schedule
current_summary_state: SummaryState

class Builtin:
    def __init__(self) -> None: ...
    def __getitem__(self, index): ...
    @property
    def ACF(self): ...
    @property
    def ACTCO2S(self): ...
    @property
    def ACTDIMS(self): ...
    @property
    def ACTION(self): ...
    @property
    def ACTIONG(self): ...
    @property
    def ACTIONR(self): ...
    @property
    def ACTIONS(self): ...
    @property
    def ACTIONW(self): ...
    @property
    def ACTIONX(self): ...
    @property
    def ACTNUM(self): ...
    @property
    def ACTPARAM(self): ...
    @property
    def ADD(self): ...
    @property
    def ADDREG(self): ...
    @property
    def ADDZCORN(self): ...
    @property
    def ADSALNOD(self): ...
    @property
    def ADSORP(self): ...
    @property
    def AITS(self): ...
    @property
    def AITSOFF(self): ...
    @property
    def ALKADS(self): ...
    @property
    def ALKALINE(self): ...
    @property
    def ALKROCK(self): ...
    @property
    def ALL(self): ...
    @property
    def ALPOLADS(self): ...
    @property
    def ALSURFAD(self): ...
    @property
    def ALSURFST(self): ...
    @property
    def AMALGAM(self): ...
    @property
    def API(self): ...
    @property
    def APIGROUP(self): ...
    @property
    def APILIM(self): ...
    @property
    def APIVD(self): ...
    @property
    def AQANCONL(self): ...
    @property
    def AQANNC(self): ...
    @property
    def AQANTRC(self): ...
    @property
    def AQUALIST(self): ...
    @property
    def AQUANCON(self): ...
    @property
    def AQUCHGAS(self): ...
    @property
    def AQUCHWAT(self): ...
    @property
    def AQUCON(self): ...
    @property
    def AQUCT(self): ...
    @property
    def AQUCWFAC(self): ...
    @property
    def AQUDIMS(self): ...
    @property
    def AQUFET(self): ...
    @property
    def AQUFETP(self): ...
    @property
    def AQUFLUX(self): ...
    @property
    def AQUIFER_PROBE_ANALYTIC(self): ...
    @property
    def AQUIFER_PROBE_ANALYTIC_NAMED(self): ...
    @property
    def AQUIFER_PROBE_NUMERIC(self): ...
    @property
    def AQUNNC(self): ...
    @property
    def AQUNUM(self): ...
    @property
    def AQUTAB(self): ...
    @property
    def AUTOCOAR(self): ...
    @property
    def AUTOREF(self): ...
    @property
    def BC(self): ...
    @property
    def BCCON(self): ...
    @property
    def BCPROP(self): ...
    @property
    def BDENSITY(self): ...
    @property
    def BGGI(self): ...
    @property
    def BIC(self): ...
    @property
    def BIGMODEL(self): ...
    @property
    def BIOTCOEF(self): ...
    @property
    def BLACKOIL(self): ...
    @property
    def BLOCK_PROBE(self): ...
    @property
    def BLOCK_PROBE300(self): ...
    @property
    def BOGI(self): ...
    @property
    def BOUNDARY(self): ...
    @property
    def BOX(self): ...
    @property
    def BPARA(self): ...
    @property
    def BPIDIMS(self): ...
    @property
    def BRANPROP(self): ...
    @property
    def BRINE(self): ...
    @property
    def BTOBALFA(self): ...
    @property
    def BTOBALFV(self): ...
    @property
    def CALTRAC(self): ...
    @property
    def CARFIN(self): ...
    @property
    def CART(self): ...
    @property
    def CBMOPTS(self): ...
    @property
    def CECON(self): ...
    @property
    def CECONT(self): ...
    @property
    def CIRCLE(self): ...
    @property
    def CNAMES(self): ...
    @property
    def CO2SOL(self): ...
    @property
    def CO2STOR(self): ...
    @property
    def CO2STORE(self): ...
    @property
    def COAL(self): ...
    @property
    def COALADS(self): ...
    @property
    def COALNUM(self): ...
    @property
    def COALPP(self): ...
    @property
    def COARSEN(self): ...
    @property
    def COLLAPSE(self): ...
    @property
    def COLUMNS(self): ...
    @property
    def COMPDAT(self): ...
    @property
    def COMPDATX(self): ...
    @property
    def COMPFLSH(self): ...
    @property
    def COMPIMB(self): ...
    @property
    def COMPINJK(self): ...
    @property
    def COMPLMPL(self): ...
    @property
    def COMPLUMP(self): ...
    @property
    def COMPOFF(self): ...
    @property
    def COMPORD(self): ...
    @property
    def COMPRIV(self): ...
    @property
    def COMPRP(self): ...
    @property
    def COMPRPL(self): ...
    @property
    def COMPS(self): ...
    @property
    def COMPSEGL(self): ...
    @property
    def COMPSEGS(self): ...
    @property
    def COMPTRAJ(self): ...
    @property
    def COMPVE(self): ...
    @property
    def COMPVEL(self): ...
    @property
    def CONNECTION_PROBE(self): ...
    @property
    def CONNECTION_PROBE_OPM(self): ...
    @property
    def COORD(self): ...
    @property
    def COORDSYS(self): ...
    @property
    def COPY(self): ...
    @property
    def COPYBOX(self): ...
    @property
    def COPYREG(self): ...
    @property
    def CPIFACT(self): ...
    @property
    def CPIFACTL(self): ...
    @property
    def CPR(self): ...
    @property
    def CREF(self): ...
    @property
    def CREFW(self): ...
    @property
    def CREFWS(self): ...
    @property
    def CRITPERM(self): ...
    @property
    def CSKIN(self): ...
    @property
    def DATE(self): ...
    @property
    def DATES(self): ...
    @property
    def DATUM(self): ...
    @property
    def DATUMR(self): ...
    @property
    def DATUMRX(self): ...
    @property
    def DCQDEFN(self): ...
    @property
    def DEBUG_(self): ...
    @property
    def DELAYACT(self): ...
    @property
    def DENSITY(self): ...
    @property
    def DEPTH(self): ...
    @property
    def DEPTHTAB(self): ...
    @property
    def DEPTHZ(self): ...
    @property
    def DIAGDISP(self): ...
    @property
    def DIFF(self): ...
    @property
    def DIFFAGAS(self): ...
    @property
    def DIFFAWAT(self): ...
    @property
    def DIFFC(self): ...
    @property
    def DIFFCGAS(self): ...
    @property
    def DIFFCOAL(self): ...
    @property
    def DIFFCWAT(self): ...
    @property
    def DIFFDP(self): ...
    @property
    def DIFFMMF(self): ...
    @property
    def DIFFMR(self): ...
    @property
    def DIFFMTHT(self): ...
    @property
    def DIFFMX(self): ...
    @property
    def DIFFMY(self): ...
    @property
    def DIFFMZ(self): ...
    @property
    def DIFFR(self): ...
    @property
    def DIFFTHT(self): ...
    @property
    def DIFFUSE(self): ...
    @property
    def DIFFX(self): ...
    @property
    def DIFFY(self): ...
    @property
    def DIFFZ(self): ...
    @property
    def DIMENS(self): ...
    @property
    def DIMPES(self): ...
    @property
    def DIMPLICT(self): ...
    @property
    def DISGAS(self): ...
    @property
    def DISGASW(self): ...
    @property
    def DISPDIMS(self): ...
    @property
    def DISPERC(self): ...
    @property
    def DISPERSE(self): ...
    @property
    def DOMAINS(self): ...
    @property
    def DPGRID(self): ...
    @property
    def DPKRMOD(self): ...
    @property
    def DPNUM(self): ...
    @property
    def DR(self): ...
    @property
    def DREF(self): ...
    @property
    def DREFS(self): ...
    @property
    def DRILPRI(self): ...
    @property
    def DRSDT(self): ...
    @property
    def DRSDTCON(self): ...
    @property
    def DRSDTR(self): ...
    @property
    def DRV(self): ...
    @property
    def DRVDT(self): ...
    @property
    def DRVDTR(self): ...
    @property
    def DSPDEINT(self): ...
    @property
    def DTHETA(self): ...
    @property
    def DTHETAV(self): ...
    @property
    def DUALPERM(self): ...
    @property
    def DUALPORO(self): ...
    @property
    def DUMPCUPL(self): ...
    @property
    def DUMPFLUX(self): ...
    @property
    def DX(self): ...
    @property
    def DXV(self): ...
    @property
    def DY(self): ...
    @property
    def DYNAMICR(self): ...
    @property
    def DYNRDIMS(self): ...
    @property
    def DYV(self): ...
    @property
    def DZ(self): ...
    @property
    def DZMATRIX(self): ...
    @property
    def DZMTRX(self): ...
    @property
    def DZMTRXV(self): ...
    @property
    def DZNET(self): ...
    @property
    def DZV(self): ...
    @property
    def ECHO(self): ...
    @property
    def ECLMC(self): ...
    @property
    def EDIT(self): ...
    @property
    def EDITNNC(self): ...
    @property
    def EDITNNCR(self): ...
    @property
    def EHYSTR(self): ...
    @property
    def EHYSTRR(self): ...
    @property
    def END(self): ...
    @property
    def ENDACTIO(self): ...
    @property
    def ENDBOX(self): ...
    @property
    def ENDDYN(self): ...
    @property
    def ENDFIN(self): ...
    @property
    def ENDINC(self): ...
    @property
    def ENDNUM(self): ...
    @property
    def ENDPOINT_SPECIFIERS(self): ...
    @property
    def ENDSCALE(self): ...
    @property
    def ENDSKIP(self): ...
    @property
    def ENKRVD(self): ...
    @property
    def ENPCVD(self): ...
    @property
    def ENPTVD(self): ...
    @property
    def ENSPCVD(self): ...
    @property
    def EOS(self): ...
    @property
    def EOSNUM(self): ...
    @property
    def EPSDBGS(self): ...
    @property
    def EPSDEBUG(self): ...
    @property
    def EQLDIMS(self): ...
    @property
    def EQLNUM(self): ...
    @property
    def EQLOPTS(self): ...
    @property
    def EQLZCORN(self): ...
    @property
    def EQUALREG(self): ...
    @property
    def EQUALS(self): ...
    @property
    def EQUIL(self): ...
    @property
    def ESSNODE(self): ...
    @property
    def EXCAVATE(self): ...
    @property
    def EXCEL(self): ...
    @property
    def EXIT(self): ...
    @property
    def EXTFIN(self): ...
    @property
    def EXTHOST(self): ...
    @property
    def EXTRAPMS(self): ...
    @property
    def EXTREPGL(self): ...
    @property
    def FAULTDIM(self): ...
    @property
    def FAULTS(self): ...
    @property
    def FBHPDEF(self): ...
    @property
    def FHERCHBL(self): ...
    @property
    def FIELD(self): ...
    @property
    def FIELDSEP(self): ...
    @property
    def FIELD_PROBE(self): ...
    @property
    def FIELD_PROBE_OPM(self): ...
    @property
    def FILEUNIT(self): ...
    @property
    def FILLEPS(self): ...
    @property
    def FIPNUM(self): ...
    @property
    def FIPOWG(self): ...
    @property
    def FIPSEP(self): ...
    @property
    def FIP_PROBE(self): ...
    @property
    def FLUXNUM(self): ...
    @property
    def FLUXREG(self): ...
    @property
    def FLUXTYPE(self): ...
    @property
    def FMTHMD(self): ...
    @property
    def FMTIN(self): ...
    @property
    def FMTOUT(self): ...
    @property
    def FMWSET(self): ...
    @property
    def FOAM(self): ...
    @property
    def FOAMADS(self): ...
    @property
    def FOAMDCYO(self): ...
    @property
    def FOAMDCYW(self): ...
    @property
    def FOAMFCN(self): ...
    @property
    def FOAMFRM(self): ...
    @property
    def FOAMFSC(self): ...
    @property
    def FOAMFSO(self): ...
    @property
    def FOAMFST(self): ...
    @property
    def FOAMFSW(self): ...
    @property
    def FOAMMOB(self): ...
    @property
    def FOAMMOBP(self): ...
    @property
    def FOAMMOBS(self): ...
    @property
    def FOAMOPTS(self): ...
    @property
    def FOAMROCK(self): ...
    @property
    def FORMFEED(self): ...
    @property
    def FRICTION(self): ...
    @property
    def FULLIMP(self): ...
    @property
    def GAS(self): ...
    @property
    def GASBEGIN(self): ...
    @property
    def GASCONC(self): ...
    @property
    def GASDENT(self): ...
    @property
    def GASEND(self): ...
    @property
    def GASFCOMP(self): ...
    @property
    def GASFDECR(self): ...
    @property
    def GASFDELC(self): ...
    @property
    def GASFIELD(self): ...
    @property
    def GASFTARG(self): ...
    @property
    def GASJT(self): ...
    @property
    def GASMONTH(self): ...
    @property
    def GASPERIO(self): ...
    @property
    def GASSATC(self): ...
    @property
    def GASVISCT(self): ...
    @property
    def GASWAT(self): ...
    @property
    def GASYEAR(self): ...
    @property
    def GCALECON(self): ...
    @property
    def GCOMPIDX(self): ...
    @property
    def GCONCAL(self): ...
    @property
    def GCONENG(self): ...
    @property
    def GCONINJE(self): ...
    @property
    def GCONPRI(self): ...
    @property
    def GCONPROD(self): ...
    @property
    def GCONSALE(self): ...
    @property
    def GCONSUMP(self): ...
    @property
    def GCONTOL(self): ...
    @property
    def GCUTBACK(self): ...
    @property
    def GCUTBACT(self): ...
    @property
    def GCVD(self): ...
    @property
    def GDCQ(self): ...
    @property
    def GDCQECON(self): ...
    @property
    def GDFILE(self): ...
    @property
    def GDIMS(self): ...
    @property
    def GDORIENT(self): ...
    @property
    def GDRILPOT(self): ...
    @property
    def GECON(self): ...
    @property
    def GECONT(self): ...
    @property
    def GEFAC(self): ...
    @property
    def GETDATA(self): ...
    @property
    def GETGLOB(self): ...
    @property
    def GI(self): ...
    @property
    def GIALL(self): ...
    @property
    def GIMODEL(self): ...
    @property
    def GINODE(self): ...
    @property
    def GLIFTLIM(self): ...
    @property
    def GLIFTOPT(self): ...
    @property
    def GMWSET(self): ...
    @property
    def GNETDP(self): ...
    @property
    def GNETINJE(self): ...
    @property
    def GNETPUMP(self): ...
    @property
    def GPMAINT(self): ...
    @property
    def GRADGRUP(self): ...
    @property
    def GRADRESV(self): ...
    @property
    def GRADRFT(self): ...
    @property
    def GRADWELL(self): ...
    @property
    def GRAVCONS(self): ...
    @property
    def GRAVDR(self): ...
    @property
    def GRAVDRB(self): ...
    @property
    def GRAVDRM(self): ...
    @property
    def GRAVITY(self): ...
    @property
    def GRDREACH(self): ...
    @property
    def GRID(self): ...
    @property
    def GRIDFILE(self): ...
    @property
    def GRIDOPTS(self): ...
    @property
    def GRIDUNIT(self): ...
    @property
    def GROUP_PROBE(self): ...
    @property
    def GRUPMAST(self): ...
    @property
    def GRUPNET(self): ...
    @property
    def GRUPRIG(self): ...
    @property
    def GRUPSLAV(self): ...
    @property
    def GRUPTARG(self): ...
    @property
    def GRUPTREE(self): ...
    @property
    def GSATINJE(self): ...
    @property
    def GSATPROD(self): ...
    @property
    def GSEPCOND(self): ...
    @property
    def GSF(self): ...
    @property
    def GSSCPTST(self): ...
    @property
    def GSWINGF(self): ...
    @property
    def GTADD(self): ...
    @property
    def GTMULT(self): ...
    @property
    def GUIDECAL(self): ...
    @property
    def GUIDERAT(self): ...
    @property
    def GUPFREQ(self): ...
    @property
    def GWRTWCV(self): ...
    @property
    def H2SOL(self): ...
    @property
    def H2STORE(self): ...
    @property
    def HALFTRAN(self): ...
    @property
    def HAxxxxxx(self): ...
    @property
    def HBNUM(self): ...
    @property
    def HDISP(self): ...
    @property
    def HEATCR(self): ...
    @property
    def HEATCRT(self): ...
    @property
    def HMAQUCT(self): ...
    @property
    def HMAQUFET(self): ...
    @property
    def HMAQUNUM(self): ...
    @property
    def HMDIMS(self): ...
    @property
    def HMFAULTS(self): ...
    @property
    def HMMLAQUN(self): ...
    @property
    def HMMLCTAQ(self): ...
    @property
    def HMMLFTAQ(self): ...
    @property
    def HMMLTWCN(self): ...
    @property
    def HMMULTFT(self): ...
    @property
    def HMMULTSG(self): ...
    @property
    def HMMULTxx(self): ...
    @property
    def HMPROPS(self): ...
    @property
    def HMROCK(self): ...
    @property
    def HMROCKT(self): ...
    @property
    def HMRREF(self): ...
    @property
    def HMWELCON(self): ...
    @property
    def HMWPIMLT(self): ...
    @property
    def HMxxxxxx(self): ...
    @property
    def HRFIN(self): ...
    @property
    def HWELLS(self): ...
    @property
    def HWKRO(self): ...
    @property
    def HWKRORG(self): ...
    @property
    def HWKRORW(self): ...
    @property
    def HWKRW(self): ...
    @property
    def HWKRWR(self): ...
    @property
    def HWPCW(self): ...
    @property
    def HWSNUM(self): ...
    @property
    def HWSOGCR(self): ...
    @property
    def HWSOWCR(self): ...
    @property
    def HWSWCR(self): ...
    @property
    def HWSWL(self): ...
    @property
    def HWSWLPC(self): ...
    @property
    def HWSWU(self): ...
    @property
    def HXFIN(self): ...
    @property
    def HYDRHEAD(self): ...
    @property
    def HYFIN(self): ...
    @property
    def HYMOBGDR(self): ...
    @property
    def HYST(self): ...
    @property
    def HYSTCHCK(self): ...
    @property
    def HZFIN(self): ...
    @property
    def IHOST(self): ...
    @property
    def IMBNUM(self): ...
    @property
    def IMBNUMMF(self): ...
    @property
    def IMKRVD(self): ...
    @property
    def IMPCVD(self): ...
    @property
    def IMPES(self): ...
    @property
    def IMPLICIT(self): ...
    @property
    def IMPORT(self): ...
    @property
    def IMPTVD(self): ...
    @property
    def IMSPCVD(self): ...
    @property
    def INCLUDE(self): ...
    @property
    def INIT(self): ...
    @property
    def INRAD(self): ...
    @property
    def INSPEC(self): ...
    @property
    def INTPC(self): ...
    @property
    def IONROCK(self): ...
    @property
    def IONXROCK(self): ...
    @property
    def IONXSURF(self): ...
    @property
    def IPCG(self): ...
    @property
    def IPCW(self): ...
    @property
    def ISGCR(self): ...
    @property
    def ISGL(self): ...
    @property
    def ISGLPC(self): ...
    @property
    def ISGU(self): ...
    @property
    def ISOGCR(self): ...
    @property
    def ISOLNUM(self): ...
    @property
    def ISOWCR(self): ...
    @property
    def ISWCR(self): ...
    @property
    def ISWL(self): ...
    @property
    def ISWLPC(self): ...
    @property
    def ISWU(self): ...
    @property
    def JFUNC(self): ...
    @property
    def JFUNCR(self): ...
    @property
    def KRNUM(self): ...
    @property
    def KRNUMMF(self): ...
    @property
    def LAB(self): ...
    @property
    def LANGMPL(self): ...
    @property
    def LANGMUIR(self): ...
    @property
    def LANGSOLV(self): ...
    @property
    def LCUNIT(self): ...
    @property
    def LGR(self): ...
    @property
    def LGRCOPY(self): ...
    @property
    def LGRFREE(self): ...
    @property
    def LGRLOCK(self): ...
    @property
    def LGROFF(self): ...
    @property
    def LGRON(self): ...
    @property
    def LICENSES(self): ...
    @property
    def LIFTOPT(self): ...
    @property
    def LINCOM(self): ...
    @property
    def LINKPERM(self): ...
    @property
    def LIVEOIL(self): ...
    @property
    def LKRO(self): ...
    @property
    def LKRORG(self): ...
    @property
    def LKRORW(self): ...
    @property
    def LKRW(self): ...
    @property
    def LKRWR(self): ...
    @property
    def LOAD(self): ...
    @property
    def LOWSALT(self): ...
    @property
    def LPCW(self): ...
    @property
    def LSALTFNC(self): ...
    @property
    def LSLTWNUM(self): ...
    @property
    def LSNUM(self): ...
    @property
    def LSOGCR(self): ...
    @property
    def LSOWCR(self): ...
    @property
    def LSWCR(self): ...
    @property
    def LSWL(self): ...
    @property
    def LSWLPC(self): ...
    @property
    def LSWU(self): ...
    @property
    def LTOSIGMA(self): ...
    @property
    def LWKRO(self): ...
    @property
    def LWKRORG(self): ...
    @property
    def LWKRORW(self): ...
    @property
    def LWKRW(self): ...
    @property
    def LWKRWR(self): ...
    @property
    def LWPCW(self): ...
    @property
    def LWSLTNUM(self): ...
    @property
    def LWSNUM(self): ...
    @property
    def LWSOGCR(self): ...
    @property
    def LWSOWCR(self): ...
    @property
    def LWSWCR(self): ...
    @property
    def LWSWL(self): ...
    @property
    def LWSWLPC(self): ...
    @property
    def LWSWU(self): ...
    @property
    def LX(self): ...
    @property
    def LXFIN(self): ...
    @property
    def LY(self): ...
    @property
    def LYFIN(self): ...
    @property
    def LZ(self): ...
    @property
    def LZFIN(self): ...
    @property
    def MAPAXES(self): ...
    @property
    def MAPUNITS(self): ...
    @property
    def MASSFLOW(self): ...
    @property
    def MATCORR(self): ...
    @property
    def MAXVALUE(self): ...
    @property
    def MECH(self): ...
    @property
    def MEMORY(self): ...
    @property
    def MESSAGE(self): ...
    @property
    def MESSAGES(self): ...
    @property
    def MESSOPTS(self): ...
    @property
    def MESSSRVC(self): ...
    @property
    def METRIC(self): ...
    @property
    def MICP(self): ...
    @property
    def BIOFPARA(self): ...
    @property
    def DIFFMICP(self): ...
    @property
    def MINNNCT(self): ...
    @property
    def MINNPCOL(self): ...
    @property
    def MINPORV(self): ...
    @property
    def MINPV(self): ...
    @property
    def MINPVV(self): ...
    @property
    def MINVALUE(self): ...
    @property
    def MISC(self): ...
    @property
    def MISCIBLE(self): ...
    @property
    def MISCNUM(self): ...
    @property
    def MLANG(self): ...
    @property
    def MLANGSLV(self): ...
    @property
    def MONITOR(self): ...
    @property
    def MPFANUM(self): ...
    @property
    def MPFNNC(self): ...
    @property
    def MSFN(self): ...
    @property
    def MSGFILE(self): ...
    @property
    def MSUM_PROBE(self): ...
    @property
    def MULSGGD(self): ...
    @property
    def MULSGGDV(self): ...
    @property
    def MULTFLT(self): ...
    @property
    def MULTIN(self): ...
    @property
    def MULTIPLY(self): ...
    @property
    def MULTIREG(self): ...
    @property
    def MULTNUM(self): ...
    @property
    def MULTOUT(self): ...
    @property
    def MULTOUTS(self): ...
    @property
    def MULTPV(self): ...
    @property
    def MULTREAL(self): ...
    @property
    def MULTREGD(self): ...
    @property
    def MULTREGH(self): ...
    @property
    def MULTREGP(self): ...
    @property
    def MULTREGT(self): ...
    @property
    def MULTSIG(self): ...
    @property
    def MULTSIGV(self): ...
    @property
    def MULT_XYZ(self): ...
    @property
    def MW(self): ...
    @property
    def MWS(self): ...
    @property
    def NARROW(self): ...
    @property
    def NCOMPS(self): ...
    @property
    def NCONSUMP(self): ...
    @property
    def NEFAC(self): ...
    @property
    def NETBALAN(self): ...
    @property
    def NETCOMPA(self): ...
    @property
    def NETWORK(self): ...
    @property
    def NETWORK_PROBE(self): ...
    @property
    def NEWTRAN(self): ...
    @property
    def NEXTSTEP(self): ...
    @property
    def NEXTSTPL(self): ...
    @property
    def NINENUM(self): ...
    @property
    def NINEPOIN(self): ...
    @property
    def NMATOPTS(self): ...
    @property
    def NMATRIX(self): ...
    @property
    def NMESSAGE(self): ...
    @property
    def NNC(self): ...
    @property
    def NNEWTF(self): ...
    @property
    def NOCASC(self): ...
    @property
    def NODEPROP(self): ...
    @property
    def NODPPM(self): ...
    @property
    def NOECHO(self): ...
    @property
    def NOGGF(self): ...
    @property
    def NOGRAV(self): ...
    @property
    def NOHMD(self): ...
    @property
    def NOHMO(self): ...
    @property
    def NOHYST(self): ...
    @property
    def NOINSPEC(self): ...
    @property
    def NOMONITO(self): ...
    @property
    def NONNC(self): ...
    @property
    def NORSSPEC(self): ...
    @property
    def NOSIM(self): ...
    @property
    def NOWARN(self): ...
    @property
    def NOWARNEP(self): ...
    @property
    def NRSOUT(self): ...
    @property
    def NSTACK(self): ...
    @property
    def NTG(self): ...
    @property
    def NUMRES(self): ...
    @property
    def NUPCOL(self): ...
    @property
    def NWATREM(self): ...
    @property
    def NXFIN(self): ...
    @property
    def NYFIN(self): ...
    @property
    def NZFIN(self): ...
    @property
    def OCOMPIDX(self): ...
    @property
    def OFM(self): ...
    @property
    def OIL(self): ...
    @property
    def OILAPI(self): ...
    @property
    def OILCOMPR(self): ...
    @property
    def OILDENT(self): ...
    @property
    def OILJT(self): ...
    @property
    def OILMW(self): ...
    @property
    def OILVISCT(self): ...
    @property
    def OILVTIM(self): ...
    @property
    def OLDTRAN(self): ...
    @property
    def OLDTRANR(self): ...
    @property
    def OPERATE(self): ...
    @property
    def OPERATER(self): ...
    @property
    def OPERNUM(self): ...
    @property
    def OPTIONS(self): ...
    @property
    def OPTIONS3(self): ...
    @property
    def OUTRAD(self): ...
    @property
    def OUTSOL(self): ...
    @property
    def OVERBURD(self): ...
    @property
    def PARALLEL(self): ...
    @property
    def PARAOPTS(self): ...
    @property
    def PARTTRAC(self): ...
    @property
    def PATHS(self): ...
    @property
    def PBUB(self): ...
    @property
    def PBVD(self): ...
    @property
    def PCFACT(self): ...
    @property
    def PCG(self): ...
    @property
    def PCG32D(self): ...
    @property
    def PCRIT(self): ...
    @property
    def PCW(self): ...
    @property
    def PCW32D(self): ...
    @property
    def PDEW(self): ...
    @property
    def PDVD(self): ...
    @property
    def PEBI(self): ...
    @property
    def PECOEFS(self): ...
    @property
    def PEDIMS(self): ...
    @property
    def PEGTABX(self): ...
    @property
    def PEKTABX(self): ...
    @property
    def PENUM(self): ...
    @property
    def PERFORMANCE_PROBE(self): ...
    @property
    def PERMAVE(self): ...
    @property
    def PERMFACT(self): ...
    @property
    def PERMJFUN(self): ...
    @property
    def PERMR(self): ...
    @property
    def PERMTHT(self): ...
    @property
    def PERMX(self): ...
    @property
    def PERMXY(self): ...
    @property
    def PERMY(self): ...
    @property
    def PERMYZ(self): ...
    @property
    def PERMZ(self): ...
    @property
    def PERMZX(self): ...
    @property
    def PETGRID(self): ...
    @property
    def PETOPTS(self): ...
    @property
    def PICOND(self): ...
    @property
    def PIMTDIMS(self): ...
    @property
    def PIMULTAB(self): ...
    @property
    def PINCH(self): ...
    @property
    def PINCHNUM(self): ...
    @property
    def PINCHOUT(self): ...
    @property
    def PINCHREG(self): ...
    @property
    def PINCHXY(self): ...
    @property
    def PINTDIMS(self): ...
    @property
    def PLMIXNUM(self): ...
    @property
    def PLMIXPAR(self): ...
    @property
    def PLYADS(self): ...
    @property
    def PLYADSS(self): ...
    @property
    def PLYATEMP(self): ...
    @property
    def PLYCAMAX(self): ...
    @property
    def PLYDHFLF(self): ...
    @property
    def PLYESAL(self): ...
    @property
    def PLYKRRF(self): ...
    @property
    def PLYMAX(self): ...
    @property
    def PLYMWINJ(self): ...
    @property
    def PLYOPTS(self): ...
    @property
    def PLYRMDEN(self): ...
    @property
    def PLYROCK(self): ...
    @property
    def PLYROCKM(self): ...
    @property
    def PLYSHEAR(self): ...
    @property
    def PLYSHLOG(self): ...
    @property
    def PLYTRRF(self): ...
    @property
    def PLYTRRFA(self): ...
    @property
    def PLYVISC(self): ...
    @property
    def PLYVISCS(self): ...
    @property
    def PLYVISCT(self): ...
    @property
    def PLYVMH(self): ...
    @property
    def PLYVSCST(self): ...
    @property
    def PMAX(self): ...
    @property
    def PMISC(self): ...
    @property
    def POELCOEF(self): ...
    @property
    def POLYMER(self): ...
    @property
    def POLYMW(self): ...
    @property
    def PORO(self): ...
    @property
    def PORV(self): ...
    @property
    def PPCWMAX(self): ...
    @property
    def PRATIO(self): ...
    @property
    def PRECSALT(self): ...
    @property
    def PREF(self): ...
    @property
    def PREFS(self): ...
    @property
    def PRESSURE(self): ...
    @property
    def PRIORITY(self): ...
    @property
    def PROPS(self): ...
    @property
    def PRORDER(self): ...
    @property
    def PRVD(self): ...
    @property
    def PSTEADY(self): ...
    @property
    def PSWRG(self): ...
    @property
    def PSWRO(self): ...
    @property
    def PVCDO(self): ...
    @property
    def PVCO(self): ...
    @property
    def PVDG(self): ...
    @property
    def PVDO(self): ...
    @property
    def PVDS(self): ...
    @property
    def PVTG(self): ...
    @property
    def PVTGW(self): ...
    @property
    def PVTGWO(self): ...
    @property
    def PVTNUM(self): ...
    @property
    def PVTO(self): ...
    @property
    def PVTSOL(self): ...
    @property
    def PVTW(self): ...
    @property
    def PVTWSALT(self): ...
    @property
    def PVT_M(self): ...
    @property
    def PVZG(self): ...
    @property
    def PYACTION(self): ...
    @property
    def PYINPUT(self): ...
    @property
    def QDRILL(self): ...
    @property
    def QHRATING(self): ...
    @property
    def QMOBIL(self): ...
    @property
    def RADFIN(self): ...
    @property
    def RADFIN4(self): ...