RUNSPEC

TITLE
         SIMPLE TEST

DIMENS
    9    9    2  /

OIL

WATER

GAS

DISGAS

VAPOIL

METRIC

EQLDIMS
    1  100   2    1    1 /
TABDIMS
   1     1     33     60   16    60 /

PROPS    ===============================================================
PVTO                                                                                
                                                                                
--  RSO    PRESSURE    B-OIL     VISCOSITY                                     
--          (BAR)                  (CP)                                        
                                                                                
   20.59     50.00    1.10615     1.180 
             75.00    1.10164     1.247 
            100.00    1.09744     1.315 
            125.00    1.09351     1.384 
            150.00    1.08984     1.453  /
 
   28.19     70.00    1.12522     1.066 
             95.00    1.12047     1.124 
            120.00    1.11604     1.182 
            145.00    1.11191     1.241 
            170.00    1.10804     1.300  /
/

