RUNSPEC

DIMENS
 10 10 10 /

GRID

DX
1000*0.25 /

DYV
10*0.25 /

DZ
1000*0.25 /

TOPS
1000*0.25 /

EDIT

OIL
GAS

TITLE
The title

START
8 MAR 1998 /

REGIONS

FLUXNUM
  1000*1 /

SATNUM
  1000*2 /

BOX 
  1  2  1  2  1  2 /

SATNUM
  8*10 /

ENDBOX

SCHEDULE

